Circuit: * C:\Users\pkubo\OneDrive\Dokumenty\LTspiceXVII\lab8\555.asc

Direct Newton iteration for .op point succeeded.

Date: Sun May 23 16:54:29 2021
Total elapsed time: 0.062 seconds.

tnom = 27
temp = 27
method = modified trap
totiter = 4301
traniter = 4291
tranpoints = 1485
accept = 1177
rejected = 308
matrix size = 23
fillins = 0
solver = Normal
Matrix Compiler1: 904 bytes object code size  0.2/0.1/[0.1]
Matrix Compiler2: 1.43 KB object code size  0.1/0.2/[0.1]

