Circuit: * C:\Users\pkubo\OneDrive\Dokumenty\LTspiceXVII\lab8\Draft3.asc

Direct Newton iteration for .op point succeeded.

Date: Wed Oct 13 18:01:02 2021
Total elapsed time: 0.081 seconds.

tnom = 27
temp = 27
method = modified trap
totiter = 4788
traniter = 4783
tranpoints = 2241
accept = 1956
rejected = 285
matrix size = 12
fillins = 0
solver = Normal
Matrix Compiler1: 624 bytes object code size  0.4/0.3/[0.2]
Matrix Compiler2: 920 bytes object code size  0.2/0.5/[0.2]

