Circuit: * C:\Users\pkubo\OneDrive\Dokumenty\LTspiceXVII\lab8\Draft2.asc

Direct Newton iteration for .op point succeeded.

Date: Sun May 23 09:22:41 2021
Total elapsed time: 0.116 seconds.

tnom = 27
temp = 27
method = modified trap
totiter = 12138
traniter = 12128
tranpoints = 5389
accept = 4598
rejected = 791
matrix size = 28
fillins = 0
solver = Normal
Matrix Compiler1: 1.15 KB object code size  0.3/0.1/[0.1]
Matrix Compiler2: 1.80 KB object code size  0.1/0.2/[0.1]

