Circuit: * C:\Users\pkubo\OneDrive\Dokumenty\LTspiceXVII\lab8\Draft1.asc

Direct Newton iteration for .op point succeeded.

Date: Mon May 17 09:49:25 2021
Total elapsed time: 0.031 seconds.

tnom = 27
temp = 27
method = modified trap
totiter = 4054
traniter = 4034
tranpoints = 2018
accept = 2018
rejected = 0
matrix size = 13
fillins = 0
solver = Normal
Matrix Compiler1: 638 bytes object code size  0.1/0.1/[0.1]
Matrix Compiler2: 959 bytes object code size  0.1/0.1/[0.1]

