Circuit: * C:\Users\pkubo\OneDrive\Dokumenty\LTspiceXVII\lab8\EwA - schemat wzmacniacza.asc

Direct Newton iteration for .op point succeeded.

Date: Wed Oct 13 18:16:23 2021
Total elapsed time: 0.048 seconds.

tnom = 27
temp = 27
method = modified trap
totiter = 5559
traniter = 5554
tranpoints = 2554
accept = 2259
rejected = 295
matrix size = 10
fillins = 0
solver = Normal
Matrix Compiler1: 506 bytes object code size  0.2/0.1/[0.1]
Matrix Compiler2: 740 bytes object code size  0.1/0.2/[0.1]

