Circuit: * C:\Users\pkubo\OneDrive\Dokumenty\LTspiceXVII\lab8\lab07.asc

Direct Newton iteration for .op point succeeded.

Date: Sun May 23 13:42:39 2021
Total elapsed time: 1.173 seconds.

tnom = 27
temp = 27
method = modified trap
totiter = 323849
traniter = 323839
tranpoints = 121407
accept = 97338
rejected = 24069
matrix size = 23
fillins = 0
solver = Normal
Matrix Compiler1: 904 bytes object code size  0.2/0.1/[0.1]
Matrix Compiler2: off  [0.1]/0.2/0.3

