Circuit: * C:\Users\pkubo\OneDrive\Dokumenty\LTspiceXVII\lab8\MC34063_up.asc

Per .tran options, skipping operating point for transient analysis.

Date: Mon May 31 13:21:07 2021
Total elapsed time: 3.925 seconds.

tnom = 27
temp = 27
method = modified trap
totiter = 841543
traniter = 841543
tranpoints = 267068
accept = 184679
rejected = 82389
matrix size = 40
fillins = 25
solver = Normal
Matrix Compiler1: 2.48 KB object code size  0.6/0.3/[0.1]
Matrix Compiler2: 3.26 KB object code size  0.3/0.3/[0.2]

