Circuit: * C:\Users\pkubo\OneDrive\Dokumenty\LTspiceXVII\lab8\symulacja.asc

WARNING: Node N005 is floating.

WARNING: Less than two connections to node N005.  This node is used by CE.
Direct Newton iteration for .op point succeeded.

Date: Sun May 30 23:41:45 2021
Total elapsed time: 0.029 seconds.

tnom = 27
temp = 27
method = trap
totiter = 6
traniter = 0
tranpoints = 0
accept = 0
rejected = 0
matrix size = 13
fillins = 0
solver = Normal
Matrix Compiler1:      37 opcodes
Matrix Compiler2: 959 bytes object code size
